src/python_pypowsybl/Notebooks/om_powsybl_data/Base_Case.xiidm
<?xml version="1.0" encoding="UTF-8"?>
<iidm:network xmlns:iidm="http://www.powsybl.org/schema/iidm/1_16" xmlns:slt="http://www.powsybl.org/schema/iidm/ext/slack_terminal/1_5" xmlns:reft="http://www.powsybl.org/schema/iidm/ext/reference_terminals/1_0" id="Default" caseDate="2019-07-30T16:39:00.000+02:00" forecastDistance="0" sourceFormat="NF" minimumValidationLevel="STEADY_STATE_HYPOTHESIS">
</iidm:network>
